!-Generator IDFEditor 1.51
!-Option SortedOrder

!-NOTE: All comments with '!-' are ignored by the IDFEditor and are generated automatically.
!-      Use '!' comments if they need to be retained when using the IDFEditor.


!-   ===========  ALL OBJECTS IN CLASS: VERSION ===========

Version,
    9.5;                     !- Version Identifier


!-   ===========  ALL OBJECTS IN CLASS: SIMULATIONCONTROL ===========

SimulationControl,
    No,                      !- Do Zone Sizing Calculation
    No,                      !- Do System Sizing Calculation
    No,                      !- Do Plant Sizing Calculation
    Yes,                     !- Run Simulation for Sizing Periods
    Yes,                     !- Run Simulation for Weather File Run Periods
    No,                      !- Do HVAC Sizing Simulation for Sizing Periods
    1;                       !- Maximum Number of HVAC Sizing Simulation Passes


!-   ===========  ALL OBJECTS IN CLASS: BUILDING ===========

Building,
    Building 1,              !- Name
    -0,                      !- North Axis {deg}
    ,                        !- Terrain
    ,                        !- Loads Convergence Tolerance Value {W}
    ,                        !- Temperature Convergence Tolerance Value {deltaC}
    ,                        !- Solar Distribution
    ,                        !- Maximum Number of Warmup Days
    ;                        !- Minimum Number of Warmup Days


!-   ===========  ALL OBJECTS IN CLASS: SHADOWCALCULATION ===========

ShadowCalculation,
    PolygonClipping,         !- Shading Calculation Method
    Periodic,                !- Shading Calculation Update Frequency Method
    20,                      !- Shading Calculation Update Frequency
    15000,                   !- Maximum Figures in Shadow Overlap Calculations
    SutherlandHodgman;       !- Polygon Clipping Algorithm


!-   ===========  ALL OBJECTS IN CLASS: HEATBALANCEALGORITHM ===========

HeatBalanceAlgorithm,
    ConductionTransferFunction,  !- Algorithm
    200;                     !- Surface Temperature Upper Limit {C}


!-   ===========  ALL OBJECTS IN CLASS: TIMESTEP ===========

Timestep,
    6;                       !- Number of Timesteps per Hour


!-   ===========  ALL OBJECTS IN CLASS: SITE:LOCATION ===========

Site:Location,
    Temixco,                 !- Name
    18.85,                   !- Latitude {deg}
    -99.23,                  !- Longitude {deg}
    -6,                      !- Time Zone {hr}
    1219;                    !- Elevation {m}


!-   ===========  ALL OBJECTS IN CLASS: SIZINGPERIOD:WEATHERFILEDAYS ===========

SizingPeriod:WeatherFileDays,
    Mayun,                   !- Name
    5,                       !- Begin Month
    1,                       !- Begin Day of Month
    6,                       !- End Month
    30,                      !- End Day of Month
    Saturday,                !- Day of Week for Start Day
    Yes,                     !- Use Weather File Daylight Saving Period
    Yes;                     !- Use Weather File Rain and Snow Indicators


!-   ===========  ALL OBJECTS IN CLASS: RUNPERIOD ===========

RunPeriod,
    Run Period 1,            !- Name
    5,                       !- Begin Month
    3,                       !- Begin Day of Month
    2019,                    !- Begin Year
    6,                       !- End Month
    25,                      !- End Day of Month
    2019,                    !- End Year
    Friday,                  !- Day of Week for Start Day
    No,                      !- Use Weather File Holidays and Special Days
    No,                      !- Use Weather File Daylight Saving Period
    No,                      !- Apply Weekend Holiday Rule
    Yes,                     !- Use Weather File Rain Indicators
    Yes;                     !- Use Weather File Snow Indicators


!-   ===========  ALL OBJECTS IN CLASS: SITE:WEATHERSTATION ===========

Site:WeatherStation,
    10,                      !- Wind Sensor Height Above Ground {m}
    0.22,                    !- Wind Speed Profile Exponent
    370,                     !- Wind Speed Profile Boundary Layer Thickness {m}
    1.5;                     !- Air Temperature Sensor Height Above Ground {m}


!-   ===========  ALL OBJECTS IN CLASS: SITE:HEIGHTVARIATION ===========

Site:HeightVariation,
    0.22,                    !- Wind Speed Profile Exponent
    370,                     !- Wind Speed Profile Boundary Layer Thickness {m}
    0.0065;                  !- Air Temperature Gradient Coefficient {K/m}


!-   ===========  ALL OBJECTS IN CLASS: SITE:GROUNDTEMPERATURE:BUILDINGSURFACE ===========

Site:GroundTemperature:BuildingSurface,
    21,                      !- January Ground Temperature {C}
    21,                      !- February Ground Temperature {C}
    21,                      !- March Ground Temperature {C}
    21,                      !- April Ground Temperature {C}
    21,                      !- May Ground Temperature {C}
    21,                      !- June Ground Temperature {C}
    21,                      !- July Ground Temperature {C}
    21,                      !- August Ground Temperature {C}
    21,                      !- September Ground Temperature {C}
    21,                      !- October Ground Temperature {C}
    21,                      !- November Ground Temperature {C}
    21;                      !- December Ground Temperature {C}


!-   ===========  ALL OBJECTS IN CLASS: SCHEDULETYPELIMITS ===========

ScheduleTypeLimits,
    Fraction,                !- Name
    ,                        !- Lower Limit Value
    ,                        !- Upper Limit Value
    Discrete,                !- Numeric Type
    Percent;                 !- Unit Type

ScheduleTypeLimits,
    Always On Discrete Limits,  !- Name
    ,                        !- Lower Limit Value
    ,                        !- Upper Limit Value
    Discrete,                !- Numeric Type
    Dimensionless;           !- Unit Type

ScheduleTypeLimits,
    Actividad,               !- Name
    ,                        !- Lower Limit Value
    ,                        !- Upper Limit Value
    Discrete,                !- Numeric Type
    ActivityLevel;           !- Unit Type

ScheduleTypeLimits,
    Eff,                     !- Name
    0,                       !- Lower Limit Value
    1,                       !- Upper Limit Value
    Continuous,              !- Numeric Type
    Dimensionless;           !- Unit Type

ScheduleTypeLimits,
    Clo,                     !- Name
    0,                       !- Lower Limit Value
    ,                        !- Upper Limit Value
    Discrete,                !- Numeric Type
    Dimensionless;           !- Unit Type

ScheduleTypeLimits,
    Vel,                     !- Name
    0,                       !- Lower Limit Value
    1,                       !- Upper Limit Value
    Discrete,                !- Numeric Type
    Velocity;                !- Unit Type


!-   ===========  ALL OBJECTS IN CLASS: SCHEDULE:DAY:INTERVAL ===========

Schedule:Day:Interval,
    HEq10Week,               !- Name
    Fraction,                !- Schedule Type Limits Name
    No,                      !- Interpolate to Timestep
    10:00,                   !- Time 1 {hh:mm}
    0.3,                     !- Value Until Time 1
    19:00,                   !- Time 2 {hh:mm}
    1,                       !- Value Until Time 2
    24:00,                   !- Time 3 {hh:mm}
    0.3;                     !- Value Until Time 3

Schedule:Day:Interval,
    HEq10Wends,              !- Name
    Fraction,                !- Schedule Type Limits Name
    No,                      !- Interpolate to Timestep
    24:00,                   !- Time 1 {hh:mm}
    0.3;                     !- Value Until Time 1

Schedule:Day:Interval,
    HMacWeek,                !- Name
    Fraction,                !- Schedule Type Limits Name
    No,                      !- Interpolate to Timestep
    10:00,                   !- Time 1 {hh:mm}
    0.283,                   !- Value Until Time 1
    19:00,                   !- Time 2 {hh:mm}
    1,                       !- Value Until Time 2
    24:00,                   !- Time 3 {hh:mm}
    0.283;                   !- Value Until Time 3

Schedule:Day:Interval,
    HMacWends,               !- Name
    Fraction,                !- Schedule Type Limits Name
    No,                      !- Interpolate to Timestep
    24:00,                   !- Time 1 {hh:mm}
    0.283;                   !- Value Until Time 1

Schedule:Day:Interval,
    HFWeek,                  !- Name
    Fraction,                !- Schedule Type Limits Name
    No,                      !- Interpolate to Timestep
    10:00,                   !- Time 1 {hh:mm}
    0.3,                     !- Value Until Time 1
    19:00,                   !- Time 2 {hh:mm}
    1,                       !- Value Until Time 2
    24:00,                   !- Time 3 {hh:mm}
    0.3;                     !- Value Until Time 3

Schedule:Day:Interval,
    HFWends,                 !- Name
    Fraction,                !- Schedule Type Limits Name
    No,                      !- Interpolate to Timestep
    24:00,                   !- Time 1 {hh:mm}
    0.3;                     !- Value Until Time 1

Schedule:Day:Interval,
    DrRWdays,                !- Name
    Fraction,                !- Schedule Type Limits Name
    No,                      !- Interpolate to Timestep
    10:00,                   !- Time 1 {hh:mm}
    0,                       !- Value Until Time 1
    19:00,                   !- Time 2 {hh:mm}
    1,                       !- Value Until Time 2
    24:00,                   !- Time 3 {hh:mm}
    0;                       !- Value Until Time 3

Schedule:Day:Interval,
    DrRWends,                !- Name
    Fraction,                !- Schedule Type Limits Name
    No,                      !- Interpolate to Timestep
    24:00,                   !- Time 1 {hh:mm}
    0;                       !- Value Until Time 1

Schedule:Day:Interval,
    ActividadWD,             !- Name
    Actividad,               !- Schedule Type Limits Name
    No,                      !- Interpolate to Timestep
    10:00,                   !- Time 1 {hh:mm}
    70,                      !- Value Until Time 1
    19:00,                   !- Time 2 {hh:mm}
    117,                     !- Value Until Time 2
    24:00,                   !- Time 3 {hh:mm}
    70;                      !- Value Until Time 3

Schedule:Day:Interval,
    ActividadWE,             !- Name
    Actividad,               !- Schedule Type Limits Name
    No,                      !- Interpolate to Timestep
    24:00,                   !- Time 1 {hh:mm}
    70;                      !- Value Until Time 1


!-   ===========  ALL OBJECTS IN CLASS: SCHEDULE:WEEK:DAILY ===========

Schedule:Week:Daily,
    HEq10,                   !- Name
    HEq10Wends,              !- Sunday Schedule:Day Name
    HEq10Week,               !- Monday Schedule:Day Name
    HEq10Week,               !- Tuesday Schedule:Day Name
    HEq10Week,               !- Wednesday Schedule:Day Name
    HEq10Week,               !- Thursday Schedule:Day Name
    HEq10Week,               !- Friday Schedule:Day Name
    HEq10Wends,              !- Saturday Schedule:Day Name
    HEq10Wends,              !- Holiday Schedule:Day Name
    HEq10Wends,              !- SummerDesignDay Schedule:Day Name
    HEq10Wends,              !- WinterDesignDay Schedule:Day Name
    HEq10Wends,              !- CustomDay1 Schedule:Day Name
    HEq10Wends;              !- CustomDay2 Schedule:Day Name

Schedule:Week:Daily,
    HMac,                    !- Name
    HMacWends,               !- Sunday Schedule:Day Name
    HMacWeek,                !- Monday Schedule:Day Name
    HMacWeek,                !- Tuesday Schedule:Day Name
    HMacWeek,                !- Wednesday Schedule:Day Name
    HMacWeek,                !- Thursday Schedule:Day Name
    HMacWeek,                !- Friday Schedule:Day Name
    HMacWends,               !- Saturday Schedule:Day Name
    HMacWends,               !- Holiday Schedule:Day Name
    HMacWends,               !- SummerDesignDay Schedule:Day Name
    HMacWends,               !- WinterDesignDay Schedule:Day Name
    HMacWends,               !- CustomDay1 Schedule:Day Name
    HMacWends;               !- CustomDay2 Schedule:Day Name

Schedule:Week:Daily,
    HF,                      !- Name
    HFWends,                 !- Sunday Schedule:Day Name
    HFWeek,                  !- Monday Schedule:Day Name
    HFWeek,                  !- Tuesday Schedule:Day Name
    HFWeek,                  !- Wednesday Schedule:Day Name
    HFWeek,                  !- Thursday Schedule:Day Name
    HFWeek,                  !- Friday Schedule:Day Name
    HFWends,                 !- Saturday Schedule:Day Name
    HFWends,                 !- Holiday Schedule:Day Name
    HFWends,                 !- SummerDesignDay Schedule:Day Name
    HFWends,                 !- WinterDesignDay Schedule:Day Name
    HFWends,                 !- CustomDay1 Schedule:Day Name
    HFWends;                 !- CustomDay2 Schedule:Day Name

Schedule:Week:Daily,
    DrR,                     !- Name
    DrRWends,                !- Sunday Schedule:Day Name
    DrRWdays,                !- Monday Schedule:Day Name
    DrRWdays,                !- Tuesday Schedule:Day Name
    DrRWdays,                !- Wednesday Schedule:Day Name
    DrRWdays,                !- Thursday Schedule:Day Name
    DrRWdays,                !- Friday Schedule:Day Name
    DrRWends,                !- Saturday Schedule:Day Name
    DrRWends,                !- Holiday Schedule:Day Name
    DrRWends,                !- SummerDesignDay Schedule:Day Name
    DrRWends,                !- WinterDesignDay Schedule:Day Name
    DrRWends,                !- CustomDay1 Schedule:Day Name
    DrRWends;                !- CustomDay2 Schedule:Day Name

Schedule:Week:Daily,
    Actividad,               !- Name
    ActividadWE,             !- Sunday Schedule:Day Name
    ActividadWD,             !- Monday Schedule:Day Name
    ActividadWD,             !- Tuesday Schedule:Day Name
    ActividadWD,             !- Wednesday Schedule:Day Name
    ActividadWD,             !- Thursday Schedule:Day Name
    ActividadWD,             !- Friday Schedule:Day Name
    ActividadWE,             !- Saturday Schedule:Day Name
    ActividadWE,             !- Holiday Schedule:Day Name
    ActividadWE,             !- SummerDesignDay Schedule:Day Name
    ActividadWE,             !- WinterDesignDay Schedule:Day Name
    ActividadWE,             !- CustomDay1 Schedule:Day Name
    ActividadWE;             !- CustomDay2 Schedule:Day Name


!-   ===========  ALL OBJECTS IN CLASS: SCHEDULE:YEAR ===========

Schedule:Year,
    HEq10,                   !- Name
    Fraction,                !- Schedule Type Limits Name
    HEq10,                   !- Schedule:Week Name 1
    1,                       !- Start Month 1
    1,                       !- Start Day 1
    12,                      !- End Month 1
    31;                      !- End Day 1

Schedule:Year,
    HMac,                    !- Name
    Fraction,                !- Schedule Type Limits Name
    HMac,                    !- Schedule:Week Name 1
    1,                       !- Start Month 1
    1,                       !- Start Day 1
    12,                      !- End Month 1
    31;                      !- End Day 1

Schedule:Year,
    HF,                      !- Name
    Fraction,                !- Schedule Type Limits Name
    HF,                      !- Schedule:Week Name 1
    1,                       !- Start Month 1
    1,                       !- Start Day 1
    12,                      !- End Month 1
    31;                      !- End Day 1

Schedule:Year,
    DrR,                     !- Name
    Fraction,                !- Schedule Type Limits Name
    DrR,                     !- Schedule:Week Name 1
    1,                       !- Start Month 1
    1,                       !- Start Day 1
    12,                      !- End Month 1
    31;                      !- End Day 1

Schedule:Year,
    Actividad,               !- Name
    Actividad,               !- Schedule Type Limits Name
    Actividad,               !- Schedule:Week Name 1
    1,                       !- Start Month 1
    1,                       !- Start Day 1
    12,                      !- End Month 1
    31;                      !- End Day 1


!-   ===========  ALL OBJECTS IN CLASS: SCHEDULE:COMPACT ===========

Schedule:Compact,
    Eff,                     !- Name
    Eff,                     !- Schedule Type Limits Name
    Through: 12/31,          !- Field 1
    For: Weekdays,           !- Field 2
    Until: 10:00,            !- Field 3
    0,                       !- Field 4
    Until:19:00,             !- Field 5
     0,                      !- Field 6
    Until: 24:00,            !- Field 7
    0,                       !- Field 8
    For: Allotherdays,       !- Field 9
    Until: 24:00,            !- Field 10
    0;                       !- Field 11

Schedule:Compact,
    Clo,                     !- Name
    Clo,                     !- Schedule Type Limits Name
    Through: 12/31,          !- Field 1
    For: AllDays,            !- Field 2
    Until: 24:00,            !- Field 3
    .55;                     !- Field 4

Schedule:Compact,
    Clot,                    !- Name
    Clo,                     !- Schedule Type Limits Name
    Through: 12/31,          !- Field 1
    For: AllDays,            !- Field 2
    Until: 24:00,            !- Field 3
     2;                      !- Field 4

Schedule:Compact,
    Vel,                     !- Name
    Vel,                     !- Schedule Type Limits Name
    Through: 12/31,          !- Field 1
    For: AllDays,            !- Field 2
    Until: 24:00,            !- Field 3
    .1;                      !- Field 4


!-   ===========  ALL OBJECTS IN CLASS: MATERIAL ===========

Material,
    1/2IN Gypsum,            !- Name
    Smooth,                  !- Roughness
    0.0127,                  !- Thickness {m}
    0.16,                    !- Conductivity {W/m-K}
    784.9,                   !- Density {kg/m3}
    830.000000000001,        !- Specific Heat {J/kg-K}
    0.9,                     !- Thermal Absorptance
    0.4,                     !- Solar Absorptance
    0.4;                     !- Visible Absorptance

Material,
    1IN Stucco,              !- Name
    Smooth,                  !- Roughness
    0.0253,                  !- Thickness {m}
    0.691799999999999,       !- Conductivity {W/m-K}
    1858,                    !- Density {kg/m3}
    836.999999999999,        !- Specific Heat {J/kg-K}
    0.9,                     !- Thermal Absorptance
    0.92,                    !- Solar Absorptance
    0.92;                    !- Visible Absorptance

Material,
    8IN Concrete HW,         !- Name
    MediumRough,             !- Roughness
    0.2033,                  !- Thickness {m}
    1.72959999999999,        !- Conductivity {W/m-K}
    2242.99999999999,        !- Density {kg/m3}
    836.999999999999,        !- Specific Heat {J/kg-K}
    0.9,                     !- Thermal Absorptance
    0.65,                    !- Solar Absorptance
    0.65;                    !- Visible Absorptance

Material,
    ConcretoAD10cm,          !- Name
    Rough,                   !- Roughness
    0.1,                     !- Thickness {m}
    2,                       !- Conductivity {W/m-K}
    2400,                    !- Density {kg/m3}
    1000,                    !- Specific Heat {J/kg-K}
    0.9,                     !- Thermal Absorptance
    0.6,                     !- Solar Absorptance
    0.6;                     !- Visible Absorptance

Material,
    F08 Metal surface,       !- Name
    Smooth,                  !- Roughness
    0.0008,                  !- Thickness {m}
    45.2800000000001,        !- Conductivity {W/m-K}
    7823.99999999999,        !- Density {kg/m3}
    500,                     !- Specific Heat {J/kg-K}
    0.9,                     !- Thermal Absorptance
    0.7,                     !- Solar Absorptance
    0.7;                     !- Visible Absorptance

Material,
    F16 Acoustic tile,       !- Name
    MediumSmooth,            !- Roughness
    0.0191,                  !- Thickness {m}
    0.06,                    !- Conductivity {W/m-K}
    368,                     !- Density {kg/m3}
    590.000000000002,        !- Specific Heat {J/kg-K}
    0.9,                     !- Thermal Absorptance
    0.3,                     !- Solar Absorptance
    0.3;                     !- Visible Absorptance

Material,
    G01a 19mm gypsum board,  !- Name
    MediumSmooth,            !- Roughness
    0.019,                   !- Thickness {m}
    0.16,                    !- Conductivity {W/m-K}
    800,                     !- Density {kg/m3}
    1090,                    !- Specific Heat {J/kg-K}
    0.9,                     !- Thermal Absorptance
    0.4,                     !- Solar Absorptance
    0.4;                     !- Visible Absorptance

Material,
    G05 25mm wood,           !- Name
    MediumSmooth,            !- Roughness
    0.0254,                  !- Thickness {m}
    0.15,                    !- Conductivity {W/m-K}
    608,                     !- Density {kg/m3}
    1630,                    !- Specific Heat {J/kg-K}
    0.9,                     !- Thermal Absorptance
    0.5,                     !- Solar Absorptance
    0.5;                     !- Visible Absorptance

Material,
    I01 25mm insulation board,  !- Name
    MediumRough,             !- Roughness
    0.0254,                  !- Thickness {m}
    0.03,                    !- Conductivity {W/m-K}
    43,                      !- Density {kg/m3}
    1210,                    !- Specific Heat {J/kg-K}
    0.9,                     !- Thermal Absorptance
    0.6,                     !- Solar Absorptance
    0.6;                     !- Visible Absorptance

Material,
    M11 100mm lightweight concrete,  !- Name
    MediumRough,             !- Roughness
    0.1016,                  !- Thickness {m}
    0.53,                    !- Conductivity {W/m-K}
    1280,                    !- Density {kg/m3}
    840.000000000002,        !- Specific Heat {J/kg-K}
    0.9,                     !- Thermal Absorptance
    0.5,                     !- Solar Absorptance
    0.5;                     !- Visible Absorptance

Material,
    MAT-CC05 4 HW CONCRETE,  !- Name
    Rough,                   !- Roughness
    0.1016,                  !- Thickness {m}
    1.311,                   !- Conductivity {W/m-K}
    2240,                    !- Density {kg/m3}
    836.800000000001,        !- Specific Heat {J/kg-K}
    0.9,                     !- Thermal Absorptance
    0.85,                    !- Solar Absorptance
    0.85;                    !- Visible Absorptance

Material,
    Metal Decking,           !- Name
    MediumSmooth,            !- Roughness
    0.0015,                  !- Thickness {m}
    45.006,                  !- Conductivity {W/m-K}
    7680,                    !- Density {kg/m3}
    418.4,                   !- Specific Heat {J/kg-K}
    0.9,                     !- Thermal Absorptance
    0.6,                     !- Solar Absorptance
    0.6;                     !- Visible Absorptance

Material,
    Metal Roofing,           !- Name
    MediumSmooth,            !- Roughness
    0.0015,                  !- Thickness {m}
    45.006,                  !- Conductivity {W/m-K}
    7680,                    !- Density {kg/m3}
    418.4,                   !- Specific Heat {J/kg-K}
    0.9,                     !- Thermal Absorptance
    0.6,                     !- Solar Absorptance
    0.6;                     !- Visible Absorptance

Material,
    MorteroAD10cm,           !- Name
    Rough,                   !- Roughness
    0.1,                     !- Thickness {m}
    0.88,                    !- Conductivity {W/m-K}
    2800,                    !- Density {kg/m3}
    896,                     !- Specific Heat {J/kg-K}
    0.9,                     !- Thermal Absorptance
    0.2,                     !- Solar Absorptance
    0.2;                     !- Visible Absorptance

Material,
    Roof Insulation [18],    !- Name
    MediumRough,             !- Roughness
    0.1693,                  !- Thickness {m}
    0.049,                   !- Conductivity {W/m-K}
    265,                     !- Density {kg/m3}
    836.800000000001,        !- Specific Heat {J/kg-K}
    0.9,                     !- Thermal Absorptance
    0.7,                     !- Solar Absorptance
    0.7;                     !- Visible Absorptance

Material,
    Roof Insulation [21],    !- Name
    MediumRough,             !- Roughness
    0.2105,                  !- Thickness {m}
    0.049,                   !- Conductivity {W/m-K}
    265,                     !- Density {kg/m3}
    836.800000000001,        !- Specific Heat {J/kg-K}
    0.9,                     !- Thermal Absorptance
    0.7,                     !- Solar Absorptance
    0.7;                     !- Visible Absorptance

Material,
    Roof Insulation [25],    !- Name
    MediumRough,             !- Roughness
    0.263,                   !- Thickness {m}
    0.049,                   !- Conductivity {W/m-K}
    265,                     !- Density {kg/m3}
    836.800000000001,        !- Specific Heat {J/kg-K}
    0.9,                     !- Thermal Absorptance
    0.7,                     !- Solar Absorptance
    0.7;                     !- Visible Absorptance

Material,
    Roof Insulation [26],    !- Name
    MediumRough,             !- Roughness
    0.2941,                  !- Thickness {m}
    0.049,                   !- Conductivity {W/m-K}
    265,                     !- Density {kg/m3}
    836.800000000001,        !- Specific Heat {J/kg-K}
    0.9,                     !- Thermal Absorptance
    0.7,                     !- Solar Absorptance
    0.7;                     !- Visible Absorptance

Material,
    Roof Membrane,           !- Name
    VeryRough,               !- Roughness
    0.0095,                  !- Thickness {m}
    0.16,                    !- Conductivity {W/m-K}
    1121.29,                 !- Density {kg/m3}
    1460,                    !- Specific Heat {J/kg-K}
    0.9,                     !- Thermal Absorptance
    0.7,                     !- Solar Absorptance
    0.7;                     !- Visible Absorptance

Material,
    TabiqueR14cm,            !- Name
    MediumRough,             !- Roughness
    0.14,                    !- Thickness {m}
    0.7,                     !- Conductivity {W/m-K}
    1970,                    !- Density {kg/m3}
    800,                     !- Specific Heat {J/kg-K}
    0.9,                     !- Thermal Absorptance
    0.65,                    !- Solar Absorptance
    0.65;                    !- Visible Absorptance

Material,
    Wall Insulation [31],    !- Name
    MediumRough,             !- Roughness
    0.0337000000000001,      !- Thickness {m}
    0.0432,                  !- Conductivity {W/m-K}
    91,                      !- Density {kg/m3}
    836.999999999999,        !- Specific Heat {J/kg-K}
    0.9,                     !- Thermal Absorptance
    0.5,                     !- Solar Absorptance
    0.5;                     !- Visible Absorptance

Material,
    Wall Insulation [35],    !- Name
    MediumRough,             !- Roughness
    0.0452,                  !- Thickness {m}
    0.0432,                  !- Conductivity {W/m-K}
    91,                      !- Density {kg/m3}
    836.999999999999,        !- Specific Heat {J/kg-K}
    0.9,                     !- Thermal Absorptance
    0.5,                     !- Solar Absorptance
    0.5;                     !- Visible Absorptance

Material,
    Wall Insulation [36],    !- Name
    MediumRough,             !- Roughness
    0.0565999999999999,      !- Thickness {m}
    0.0432,                  !- Conductivity {W/m-K}
    91,                      !- Density {kg/m3}
    836.999999999999,        !- Specific Heat {J/kg-K}
    0.9,                     !- Thermal Absorptance
    0.5,                     !- Solar Absorptance
    0.5;                     !- Visible Absorptance

Material,
    Wall Insulation [37],    !- Name
    MediumRough,             !- Roughness
    0.0680999999999999,      !- Thickness {m}
    0.0432,                  !- Conductivity {W/m-K}
    91,                      !- Density {kg/m3}
    836.999999999999,        !- Specific Heat {J/kg-K}
    0.9,                     !- Thermal Absorptance
    0.5,                     !- Solar Absorptance
    0.5;                     !- Visible Absorptance

Material,
    Wall Insulation [40],    !- Name
    MediumRough,             !- Roughness
    0.0793999999999999,      !- Thickness {m}
    0.0432,                  !- Conductivity {W/m-K}
    91,                      !- Density {kg/m3}
    836.999999999999,        !- Specific Heat {J/kg-K}
    0.9,                     !- Thermal Absorptance
    0.5,                     !- Solar Absorptance
    0.5;                     !- Visible Absorptance

Material,
    Wall Insulation [42],    !- Name
    MediumRough,             !- Roughness